22 
Energy: -1.3482639582636901e+04 
C	 -2.540997000000 	 -2.700951340000 	 -1.191026560000 	
C	 -1.900412570000 	 -1.324429050000 	 -1.224832280000 	
O	 -2.405448700000 	 -0.376595440000 	 -1.834317880000 	
H	 -1.952021110000 	 -3.448729800000 	 -0.644788750000 	
H	 -3.531872430000 	 -2.615793160000 	 -0.725318920000 	
H	 -2.692962400000 	 -3.041994630000 	 -2.223304110000 	
N	 -0.734422940000 	 -1.204558480000 	 -0.519856280000 	
C	  0.043425540000 	  0.020795190000 	 -0.525873410000 	
C	 -0.409153850000 	  0.996972720000 	  0.577229290000 	
C	  1.515274870000 	 -0.384487840000 	 -0.334364110000 	
O	  1.826028060000 	 -1.461160690000 	  0.184557610000 	
H	 -0.258444360000 	 -2.012023630000 	 -0.116237260000 	
H	 -0.100868510000 	  0.500197680000 	 -1.508961990000 	
H	 -1.470714230000 	  1.234011450000 	  0.433006300000 	
H	 -0.275153160000 	  0.541133060000 	  1.567911470000 	
H	  0.163229920000 	  1.934926990000 	  0.543702090000 	
N	  2.423709250000 	  0.545038190000 	 -0.745376040000 	
C	  3.858238860000 	  0.375462010000 	 -0.577896630000 	
H	  2.077337600000 	  1.384788590000 	 -1.199592040000 	
H	  4.017012770000 	 -0.585492380000 	 -0.075918550000 	
H	  4.371438260000 	  0.359324160000 	 -1.550173440000 	
H	  4.282776100000 	  1.179566420000 	  0.040431480000 	
22 
Energy: -1.3482635895664100e+04 
C	 -2.501101006387 	 -2.853672678193 	 -1.102744155460 	
C	 -1.892471981439 	 -1.462143992835 	 -1.115514552332 	
O	 -2.425801819037 	 -0.510978888516 	 -1.694515237323 	
H	 -1.997825640776 	 -3.544564099784 	 -0.414439780913 	
H	 -3.560630873807 	 -2.775150902591 	 -0.830416139727 	
H	 -2.450938189187 	 -3.266760137579 	 -2.119702863803 	
N	 -0.708200358487 	 -1.341953350881 	 -0.441541110629 	
C	  0.083640921598 	 -0.126458528309 	 -0.481816733787 	
C	 -0.343209428526 	  0.879052677037 	  0.604501691538 	
C	  1.552304320759 	 -0.556544172797 	 -0.305811187076 	
O	  1.850623451282 	 -1.661393136740 	  0.158943305385 	
H	 -0.208679226592 	 -2.156450880727 	 -0.081299406749 	
H	 -0.061591537576 	  0.338492114966 	 -1.472494867348 	
H	 -1.403907363724 	  1.124117167398 	  0.468554069307 	
H	 -0.201299926636 	  0.446011768526 	  1.604160680386 	
H	  0.237128229640 	  1.810494900302 	  0.541813748341 	
N	  2.475523344102 	  0.378855388522 	 -0.665153923968 	
C	  3.907598364630 	  0.156289803405 	 -0.539072444383 	
H	  2.148342366482 	  1.235922375932 	 -1.100783207224 	
H	  4.053377376371 	 -0.709060461234 	  0.116809568946 	
H	  4.370885527394 	 -0.061141346340 	 -1.513536197444 	
H	  4.394978098276 	  1.034472227749 	 -0.095656503546 	
22 
Energy: -1.3482613082186799e+04 
C	 -2.458600063846 	 -2.984592631027 	 -1.009797772726 	
C	 -1.920326602824 	 -1.561929731919 	 -0.990939222478 	
O	 -2.539644276619 	 -0.600533553364 	 -1.455185137740 	
H	 -2.050074603214 	 -3.600756464806 	 -0.197602206202 	
H	 -3.551649289281 	 -2.961003131005 	 -0.942048498290 	
H	 -2.185069034983 	 -3.454902972093 	 -1.965973450628 	
N	 -0.679434430369 	 -1.444359346291 	 -0.427905890873 	
C	  0.110007446615 	 -0.228346129632 	 -0.482929302055 	
C	 -0.288335719058 	  0.770833565549 	  0.619279407579 	
C	  1.578615272476 	 -0.687431637196 	 -0.355063342294 	
O	  1.867862226447 	 -1.852036495001 	 -0.058193973389 	
H	 -0.127813495637 	 -2.271231883807 	 -0.186737220958 	
H	 -0.042495948990 	  0.250193823547 	 -1.467730465428 	
H	 -1.350944641065 	  1.020017039915 	  0.508762799319 	
H	 -0.126433147421 	  0.328549413564 	  1.611729869656 	
H	  0.288174629629 	  1.704566461466 	  0.554285521701 	
N	  2.526357681658 	  0.265649905913 	 -0.561066120578 	
C	  3.945167959140 	 -0.050509262489 	 -0.476656121156 	
H	  2.241675864599 	  1.187015028511 	 -0.877134568655 	
H	  4.097493428805 	 -0.773338210560 	  0.333572576043 	
H	  4.319194437135 	 -0.499756821693 	 -1.409697136299 	
H	  4.511813668757 	  0.862602510835 	 -0.263326513864 	
22 
Energy: -1.3482533526963400e+04 
C	 -2.391598945813 	 -3.079683380616 	 -0.924057257355 	
C	 -1.961575208529 	 -1.618215901521 	 -0.845120730138 	
O	 -2.725466699222 	 -0.669779230357 	 -1.043706613030 	
H	 -2.070377929497 	 -3.637671768930 	 -0.032895692414 	
H	 -3.479714168753 	 -3.133018321087 	 -1.017126215729 	
H	 -1.935700633178 	 -3.561836204060 	 -1.801908632800 	
N	 -0.641543490939 	 -1.473440127711 	 -0.527512650279 	
C	  0.110451192146 	 -0.231912373986 	 -0.535790916427 	
C	 -0.277159650332 	  0.702857854058 	  0.623800965733 	
C	  1.587351691142 	 -0.706497350256 	 -0.506041347310 	
O	  1.866096058022 	 -1.912909604195 	 -0.492658364057 	
H	 -0.022671683563 	 -2.289982101862 	 -0.508802623679 	
H	 -0.066576734050 	  0.309659030261 	 -1.485298409976 	
H	 -1.345021115363 	  0.942116159040 	  0.536963176827 	
H	 -0.101809558406 	  0.218187189798 	  1.593700512381 	
H	  0.284370177831 	  1.648141817995 	  0.593715478584 	
N	  2.574340821584 	  0.224289510506 	 -0.486545952333 	
C	  3.959784048076 	 -0.228022337538 	 -0.402035942060 	
H	  2.361365329883 	  1.215355825744 	 -0.526934459365 	
H	  4.089054550141 	 -0.867125994948 	  0.482729821315 	
H	  4.231040414039 	 -0.828539158991 	 -1.282211674470 	
H	  4.624126180450 	  0.638446767079 	 -0.330618885894 	
22 
Energy: -1.3482400486311901e+04 
C	 -2.337222534519 	 -3.146014854063 	 -0.875584442837 	
C	 -1.951501527225 	 -1.682957896513 	 -0.671410334441 	
O	 -2.792066617105 	 -0.800820221800 	 -0.467029847057 	
H	 -2.130072412986 	 -3.721946152840 	  0.037835635245 	
H	 -3.411578885951 	 -3.180119055902 	 -1.076904952388 	
H	 -1.788967450169 	 -3.632511350424 	 -1.695790528799 	
N	 -0.605287834572 	 -1.468477136913 	 -0.687198260492 	
C	  0.110292146518 	 -0.205309615977 	 -0.586763520433 	
C	 -0.264105810824 	  0.668878386507 	  0.623316205315 	
C	  1.591809983432 	 -0.681868429806 	 -0.704292688452 	
O	  1.845773932434 	 -1.827609490902 	 -1.108297266958 	
H	  0.037170342527 	 -2.205673010698 	 -1.001437329206 	
H	 -0.095059307258 	  0.409467531041 	 -1.485271223146 	
H	 -1.329866751653 	  0.914259195373 	  0.547103235470 	
H	 -0.100592570518 	  0.182053496643 	  1.593593637928 	
H	  0.279412210770 	  1.625064187813 	  0.611484393721 	
N	  2.596404932447 	  0.164680886534 	 -0.367620836267 	
C	  3.963595533478 	 -0.338638130448 	 -0.323425764119 	
H	  2.391367557044 	  1.091194641598 	 -0.011667386969 	
H	  4.139494028261 	 -0.935550683588 	  0.584879222647 	
H	  4.112739642377 	 -0.997583878844 	 -1.183381715920 	
H	  4.675688949112 	  0.491184583983 	 -0.359771908578 	
22 
Energy: -1.3482639582636901e+04 
C	 -2.277172155691 	 -3.196711095964 	 -0.861705636205 	
C	 -1.811079872694 	 -1.790938908544 	 -0.496521209994 	
O	 -2.523333839004 	 -1.100000651118 	  0.182177330571 	
H	 -2.205877028895 	 -3.794114122782 	  0.061397665206 	
H	 -3.341828293896 	 -3.130543659602 	 -1.121100329962 	
H	 -1.747969541885 	 -3.729197176392 	 -1.664098312938 	
N	 -0.591732914994 	 -1.388631306075 	 -0.895939139199 	
C	  0.099562909633 	 -0.115755149616 	 -0.646192541827 	
C	 -0.275645864765 	  0.680398543144 	  0.620756586619 	
C	  1.577184170820 	 -0.530829413056 	 -0.907906474658 	
O	  1.816148968983 	 -1.291568766180 	 -1.784352861493 	
H	 -0.013192942010 	 -1.973361360315 	 -1.515532301391 	
H	 -0.130062966399 	  0.573269339951 	 -1.480019599443 	
H	 -1.339908821093 	  0.939996137740 	  0.574553847669 	
H	 -0.126975119561 	  0.190127248121 	  1.596077316242 	
H	  0.266856690683 	  1.638894805513 	  0.626038357607 	
N	  2.549050037132 	 -0.080501167847 	 -0.173279800930 	
C	  3.942314281224 	 -0.458477981074 	 -0.259475110193 	
H	  2.297060870813 	  0.534014108834 	  0.549741156930 	
H	  4.251550930656 	 -0.985210166824 	  0.648613668085 	
H	  4.070148891556 	 -1.131285763923 	 -1.112554608692 	
H	  4.579473124142 	  0.417884211610 	 -0.401265971517 	
22 
Energy: -1.3482150313062501e+04 
C	 -2.203601704846 	 -3.211077346738 	 -0.848451402205 	
C	 -1.605415579352 	 -1.909154969391 	 -0.315984180702 	
O	 -2.051333659540 	 -1.461717820029 	  0.742322727656 	
H	 -2.280307503342 	 -3.861770315583 	  0.031376884861 	
H	 -3.236132451178 	 -3.002144054294 	 -1.165064662521 	
H	 -1.695133811957 	 -3.752649843200 	 -1.657904216156 	
N	 -0.619076615670 	 -1.287351482656 	 -1.036807924627 	
C	  0.076002475713 	 -0.017867219776 	 -0.712837365349 	
C	 -0.289948141378 	  0.702982303172 	  0.599351681980 	
C	  1.559912218445 	 -0.332525003125 	 -1.038543749638 	
O	  1.856285655846 	 -0.583328866553 	 -2.211083412615 	
H	 -0.235728055791 	 -1.717426391864 	 -1.879955615034 	
H	 -0.183062740697 	  0.704013624548 	 -1.506784971500 	
H	 -1.356948498526 	  0.959566872958 	  0.599926853446 	
H	 -0.123298125769 	  0.162210042835 	  1.541139080474 	
H	  0.261947576402 	  1.655980933330 	  0.631116431154 	
N	  2.457234238660 	 -0.369661072242 	 -0.021242148148 	
C	  3.885733113375 	 -0.578813077377 	 -0.221222204615 	
H	  2.135576499905 	 -0.157398668157 	  0.914677226873 	
H	  4.318246588202 	 -1.018169402548 	  0.685944696930 	
H	  4.059351414141 	 -1.257825136921 	 -1.063601158703 	
H	  4.404476984824 	  0.366274204383 	 -0.445761412431 	
22 
Energy: -1.3482274483593599e+04 
C	 -2.121238292060 	 -3.186448837012 	 -0.806969078748 	
C	 -1.391931739939 	 -2.014464992398 	 -0.157108663441 	
O	 -1.495577298906 	 -1.793394407341 	  1.049889522511 	
H	 -2.344590147969 	 -3.919808256175 	 -0.025266014168 	
H	 -3.078693874372 	 -2.829798962071 	 -1.214329159047 	
H	 -1.564716714984 	 -3.677722496782 	 -1.617251599886 	
N	 -0.685870528350 	 -1.223554540919 	 -1.034578535920 	
C	  0.046099363596 	  0.028902580324 	 -0.766787076333 	
C	 -0.289187043139 	  0.708707701081 	  0.559905638806 	
C	  1.555055587147 	 -0.193505776407 	 -1.049001508712 	
O	  1.991352150475 	 -0.054986362187 	 -2.195164278610 	
H	 -0.622683435053 	 -1.539380410181 	 -2.000715621320 	
H	 -0.245093393307 	  0.723385062740 	 -1.569552157808 	
H	 -1.362344247245 	  0.935246683261 	  0.601414061048 	
H	 -0.064266501720 	  0.083429210772 	  1.429715448180 	
H	  0.265523752123 	  1.655714484881 	  0.620380056850 	
N	  2.360322155672 	 -0.548450174482 	 -0.010447072600 	
C	  3.799085893986 	 -0.686535350258 	 -0.206084309770 	
H	  1.965660452816 	 -0.668452858681 	  0.916711620341 	
H	  4.258110892412 	 -1.043834154439 	  0.721375983156 	
H	  4.022974257679 	 -1.392487938367 	 -1.017683216343 	
H	  4.248251143522 	  0.280133167171 	 -0.478931421988 	
22 
Energy: -1.3482412728903601e+04 
C	 -2.027277862898 	 -3.201086558519 	 -0.747278961952 	
C	 -1.106091296559 	 -2.138964989364 	 -0.154756515058 	
O	 -0.740846901042 	 -2.161417664168 	  1.023667407318 	
H	 -2.361200736610 	 -3.859212608600 	  0.060761427748 	
H	 -2.906005679801 	 -2.752729853736 	 -1.233526406445 	
H	 -1.495333584576 	 -3.804893782495 	 -1.497107475345 	
N	 -0.737970841857 	 -1.161931686266 	 -1.045291345111 	
C	  0.023916362962 	  0.067855900323 	 -0.775517215435 	
C	 -0.317254299181 	  0.730546919008 	  0.562606526432 	
C	  1.542387723346 	 -0.104284610485 	 -1.032328325672 	
O	  2.050137661088 	  0.334546733545 	 -2.068631008868 	
H	 -0.973858738538 	 -1.319080934580 	 -2.019764766083 	
H	 -0.265939971161 	  0.761643553212 	 -1.577156913589 	
H	 -1.393669266742 	  0.943582545691 	  0.609381490039 	
H	 -0.068674110855 	  0.106687000398 	  1.427353213495 	
H	  0.225580113679 	  1.681764585848 	  0.635431091950 	
N	  2.268104613951 	 -0.714766265245 	 -0.056466163901 	
C	  3.713697394014 	 -0.848579493844 	 -0.180851896593 	
H	  1.781956584488 	 -1.132778519477 	  0.733481500312 	
H	  4.137071801403 	 -1.111936367057 	  0.794649479565 	
H	  3.997866290277 	 -1.615279477454 	 -0.918298578591 	
H	  4.138618707045 	  0.108034334124 	 -0.514452627308 	
22 
Energy: -1.3482573526346800e+04 
C	 -1.876466369461 	 -3.267972241619 	 -0.676138474857 	
C	 -0.876361264953 	 -2.218118138982 	 -0.216083437087 	
O	 -0.211662013423 	 -2.352719279457 	  0.820774712209 	
H	 -2.294790118475 	 -3.760896938004 	  0.208913026384 	
H	 -2.694245294377 	 -2.846127391696 	 -1.275977997873 	
H	 -1.362766548077 	 -4.031953229783 	 -1.277655479171 	
N	 -0.766403367874 	 -1.129370906465 	 -1.034279946005 	
C	  0.015314262831 	  0.092282508763 	 -0.770225640757 	
C	 -0.323949252491 	  0.726540833019 	  0.586230879099 	
C	  1.544355739561 	 -0.063718472671 	 -0.990983481533 	
O	  2.112217883205 	  0.589491449455 	 -1.871575313872 	
H	 -1.274485460128 	 -1.156520103061 	 -1.912138218315 	
H	 -0.277675816224 	  0.792288256965 	 -1.562885093409 	
H	 -1.399206338728 	  0.947455860560 	  0.638749023979 	
H	 -0.068093554628 	  0.066466007939 	  1.422819229926 	
H	  0.232977133594 	  1.666390567481 	  0.697446145559 	
N	  2.182789462429 	 -0.891434963139 	 -0.121353153686 	
C	  3.626139118826 	 -1.061544471497 	 -0.157453589119 	
H	  1.602485987549 	 -1.459305594508 	  0.504110996583 	
H	  4.009684496571 	 -1.192542706028 	  0.862865316406 	
H	  3.931764350528 	 -1.924721935214 	 -0.770840302600 	
H	  4.066740389125 	 -0.159808553751 	 -0.600589332321 	
22 
Energy: -1.3482611805202499e+04 
C	 -1.782467556448 	 -3.415755874364 	 -0.605301660208 	
C	 -0.785103264142 	 -2.357778055600 	 -0.170247735968 	
O	 -0.069215909164 	 -2.522178250345 	  0.830054718465 	
H	 -2.354561964936 	 -3.730273305283 	  0.276264428075 	
H	 -2.478161850071 	 -3.078759705932 	 -1.384110691833 	
H	 -1.235200120134 	 -4.294604898274 	 -0.972637338768 	
N	 -0.729345434317 	 -1.242718957209 	 -0.955195368046 	
C	  0.054751541370 	 -0.016739271248 	 -0.705081659801 	
C	 -0.283903414346 	  0.634834251454 	  0.643495966444 	
C	  1.588866750734 	 -0.160272565738 	 -0.902426894183 	
O	  2.176105917189 	  0.606552006037 	 -1.672006547519 	
H	 -1.313868708274 	 -1.234315367703 	 -1.784600923953 	
H	 -0.232648677121 	  0.672090734013 	 -1.509758171399 	
H	 -1.355866081141 	  0.870974618267 	  0.692782592880 	
H	 -0.032463799044 	 -0.023176902030 	  1.483739191092 	
H	  0.284573783503 	  1.568805716589 	  0.745194763819 	
N	  2.191150831926 	 -1.110171027092 	 -0.140624456736 	
C	  3.627413690817 	 -1.324264340537 	 -0.164702356854 	
H	  1.580858470428 	 -1.706904534549 	  0.433615757434 	
H	  4.052241340468 	 -1.231037030700 	  0.845509885684 	
H	  3.879080183119 	 -2.318767175800 	 -0.563144884531 	
H	  4.071466163768 	 -0.559364439800 	 -0.812196845190 	
22 
Energy: -1.3482615936543199e+04 
C	 -1.714642440000 	 -3.573635410000 	 -0.527519230000 	
C	 -0.735473010000 	 -2.502968210000 	 -0.085045540000 	
O	 -0.034436610000 	 -2.655818930000 	  0.927870860000 	
H	 -2.411302330000 	 -3.766828460000 	  0.298540270000 	
H	 -2.288410810000 	 -3.313487840000 	 -1.425808870000 	
H	 -1.159581240000 	 -4.503132700000 	 -0.710585330000 	
N	 -0.681517130000 	 -1.390455810000 	 -0.873457150000 	
C	  0.107386150000 	 -0.164146900000 	 -0.637504510000 	
C	 -0.229817320000 	  0.512511620000 	  0.699363290000 	
C	  1.640966650000 	 -0.320835000000 	 -0.830584970000 	
O	  2.243284940000 	  0.463848220000 	 -1.569839610000 	
H	 -1.249464890000 	 -1.396661560000 	 -1.714180430000 	
H	 -0.174744760000 	  0.514615160000 	 -1.452810160000 	
H	 -1.300979320000 	  0.753526520000 	  0.743080500000 	
H	  0.018875250000 	 -0.129352010000 	  1.552915620000 	
H	  0.341432710000 	  1.446701670000 	  0.782268940000 	
N	  2.223223280000 	 -1.315170400000 	 -0.112258480000 	
C	  3.651593620000 	 -1.572000390000 	 -0.159823190000 	
H	  1.608067580000 	 -1.892170560000 	  0.476759620000 	
H	  4.142950020000 	 -1.285441060000 	  0.783221170000 	
H	  3.844535370000 	 -2.637613200000 	 -0.347968830000 	
H	  4.079054270000 	 -0.974484750000 	 -0.973633970000 	
