4 
Energy: -1.5392231268067101e+03 
N	  0.000000000000 	  0.000000000000 	  0.000000000000 	
H	  0.817017540000 	 -0.471692900000 	  0.390551610000 	
H	 -0.817017540000 	 -0.471692900000 	  0.390551610000 	
H	  0.000000000000 	  0.943408300000 	  0.390551610000 	
4 
Energy: -1.5392231260904300e+03 
N	  0.000000000000 	 -0.000001090858 	 -0.097498936629 	
H	  0.817112542985 	 -0.471747189634 	  0.293107284291 	
H	 -0.817112542985 	 -0.471747189635 	  0.293107284291 	
H	  0.000000000000 	  0.943517970127 	  0.293108412028 	
4 
Energy: -1.5392231255800800e+03 
N	 -0.000000000000 	 -0.000001177174 	 -0.195039716675 	
H	  0.817126494267 	 -0.471755229667 	  0.195668929508 	
H	 -0.817126494267 	 -0.471755229667 	  0.195668929508 	
H	  0.000000000000 	  0.943534136508 	  0.195670040480 	
4 
Energy: -1.5392165880063201e+03 
N	 -0.000000000000 	  0.000006201000 	 -0.269482243220 	
H	  0.825690550219 	 -0.476707884331 	  0.091026977485 	
H	 -0.825690550219 	 -0.476707884331 	  0.091026977485 	
H	  0.000000000000 	  0.953432067662 	  0.091026752450 	
4 
Energy: -1.5390519976997500e+03 
N	 -0.000000000000 	  0.000004800929 	 -0.097470813533 	
H	  0.862895409345 	 -0.498186146904 	  0.032482175478 	
H	 -0.862895409345 	 -0.498186146904 	  0.032482175478 	
H	  0.000000000000 	  0.996389992879 	  0.032482075706 	
4 
Energy: -1.5390519976997600e+03 
N	 -0.000000000000 	  0.000004800929 	  0.097470813531 	
H	  0.862895409344 	 -0.498186146904 	 -0.032482175478 	
H	 -0.862895409344 	 -0.498186146904 	 -0.032482175478 	
H	  0.000000000000 	  0.996389992879 	 -0.032482075706 	
4 
Energy: -1.5392165880063101e+03 
N	 -0.000000000000 	  0.000006201000 	  0.269482243219 	
H	  0.825690550219 	 -0.476707884331 	 -0.091026977485 	
H	 -0.825690550219 	 -0.476707884331 	 -0.091026977485 	
H	  0.000000000000 	  0.953432067662 	 -0.091026752449 	
4 
Energy: -1.5392231255800800e+03 
N	 -0.000000000000 	 -0.000001177173 	  0.195039716675 	
H	  0.817126494267 	 -0.471755229667 	 -0.195668929508 	
H	 -0.817126494267 	 -0.471755229668 	 -0.195668929508 	
H	  0.000000000000 	  0.943534136508 	 -0.195670040480 	
4 
Energy: -1.5392231260904300e+03 
N	 -0.000000000000 	 -0.000001090858 	  0.097498936628 	
H	  0.817112542985 	 -0.471747189634 	 -0.293107284291 	
H	 -0.817112542985 	 -0.471747189635 	 -0.293107284291 	
H	  0.000000000000 	  0.943517970127 	 -0.293108412028 	
4 
Energy: -1.5392231268067101e+03 
N	  0.000000000000 	  0.000000000000 	  0.000000000000 	
H	  0.817017540000 	 -0.471692900000 	 -0.390551610000 	
H	 -0.817017540000 	 -0.471692900000 	 -0.390551610000 	
H	  0.000000000000 	  0.943408300000 	 -0.390551610000 	
