12 
Energy: -4.2738793860945398e+03 
C	 -1.959817270000 	 -0.089620540000 	  0.000000000000 	
C	 -0.541695180000 	  0.392413900000 	  0.000000000000 	
C	  0.541695180000 	 -0.392413900000 	  0.000000000000 	
C	  1.959817270000 	  0.089620540000 	  0.000000000000 	
H	 -2.013707240000 	 -1.186503400000 	  0.000000000000 	
H	 -2.507668140000 	  0.278106020000 	 -0.881722290000 	
H	 -2.507668140000 	  0.278106020000 	  0.881722290000 	
H	 -0.398769180000 	  1.479530910000 	  0.000000000000 	
H	  0.398769180000 	 -1.479530910000 	  0.000000000000 	
H	  2.013707240000 	  1.186503400000 	  0.000000000000 	
H	  2.507668140000 	 -0.278106020000 	  0.881722290000 	
H	  2.507668140000 	 -0.278106020000 	 -0.881722290000 	
12 
Energy: -4.2738780460650996e+03 
C	 -1.927863483856 	 -0.372141932686 	  0.000134436982 	
C	 -0.593660516271 	  0.310691354959 	 -0.004477065172 	
C	  0.593660515808 	 -0.310691354003 	 -0.004477121942 	
C	  1.927863483970 	  0.372141932606 	  0.000134351836 	
H	 -1.822768754290 	 -1.465128756033 	 -0.051643167043 	
H	 -2.546774738802 	 -0.047898380731 	 -0.851887671576 	
H	 -2.498637079613 	 -0.128317717048 	  0.911142222666 	
H	 -0.608248699326 	  1.408350815797 	 -0.003268475283 	
H	  0.608248698586 	 -1.408350814934 	 -0.003268612568 	
H	  1.822768751627 	  1.465128760521 	 -0.051643150106 	
H	  2.498637139949 	  0.128317637034 	  0.911142078334 	
H	  2.546774682216 	  0.047898454517 	 -0.851887826127 	
12 
Energy: -4.2738725003326699e+03 
C	 -1.856615794033 	 -0.639448822132 	  0.000136049897 	
C	 -0.631386869081 	  0.224329186092 	 -0.010564319174 	
C	  0.631386865474 	 -0.224329180785 	 -0.010564524714 	
C	  1.856615794032 	  0.639448821839 	  0.000135740695 	
H	 -1.604520444519 	 -1.700475576844 	 -0.137679194861 	
H	 -2.559467507773 	 -0.348440288444 	 -0.796361866563 	
H	 -2.405279115774 	 -0.542885433176 	  0.951707250374 	
H	 -0.799783059019 	  1.309052542917 	 -0.007236899813 	
H	  0.799783055850 	 -1.309052538484 	 -0.007237397676 	
H	  1.604520400391 	  1.700475623998 	 -0.137679058893 	
H	  2.405279428294 	  0.542885105397 	  0.951706727459 	
H	  2.559467246157 	  0.348440559623 	 -0.796362506732 	
12 
Energy: -4.2738481863308798e+03 
C	 -1.758751882988 	 -0.875660504605 	 -0.000882443585 	
C	 -0.655100205571 	  0.140891706120 	 -0.012023875132 	
C	  0.655100199125 	 -0.140891691662 	 -0.012024105933 	
C	  1.758751878027 	  0.875660505976 	 -0.000882921202 	
H	 -1.394455036567 	 -1.870849283253 	 -0.292729959262 	
H	 -2.569550544031 	 -0.593405134414 	 -0.689444397923 	
H	 -2.213783515047 	 -0.965125828825 	  0.999733424364 	
H	 -0.962054678840 	  1.194685167357 	 -0.004651325398 	
H	  0.962054683019 	 -1.194685152753 	 -0.004651794896 	
H	  1.394454777951 	  1.870849480598 	 -0.292729452327 	
H	  2.213784373941 	  0.965125139239 	  0.999732615735 	
H	  2.569549950981 	  0.593405596222 	 -0.689445764441 	
12 
Energy: -4.2737846465640996e+03 
C	 -1.666368031222 	 -1.045987555981 	 -0.005962971801 	
C	 -0.665726499916 	  0.076909960427 	  0.015456023320 	
C	  0.665726500276 	 -0.076909916463 	  0.015456235874 	
C	  1.666368009198 	  1.045987556146 	 -0.005963323090 	
H	 -1.274271255240 	 -1.919208717367 	 -0.546411845864 	
H	 -2.597670292850 	 -0.735590806418 	 -0.500559575381 	
H	 -1.941367765028 	 -1.379558978703 	  1.008108527831 	
H	 -1.072652048717 	  1.095900188994 	  0.029370139457 	
H	  1.072652089124 	 -1.095900124527 	  0.029371171396 	
H	  1.274270360141 	  1.919209275723 	 -0.546410655910 	
H	  1.941369497578 	  1.379557896949 	  1.008108062501 	
H	  2.597669436657 	  0.735591221222 	 -0.500561788333 	
12 
Energy: -4.2736727963556696e+03 
C	 -1.603833279519 	 -1.133437098503 	 -0.022143614664 	
C	 -0.668911562223 	  0.041223499189 	  0.116514387444 	
C	  0.668911558699 	 -0.041223427363 	  0.116514975270 	
C	  1.603833240248 	  1.133437086714 	 -0.022143746626 	
H	 -1.249029417437 	 -1.798960101788 	 -0.822617352011 	
H	 -2.611084351069 	 -0.796907130542 	 -0.301578124023 	
H	 -1.702573754750 	 -1.740851041850 	  0.890664782210 	
H	 -1.129734027836 	  1.036498587959 	  0.139158967255 	
H	  1.129734093877 	 -1.036498451877 	  0.139161234053 	
H	  1.249028083228 	  1.798960969113 	 -0.822616160611 	
H	  1.702575721680 	  1.740850071588 	  0.890665082649 	
H	  2.611083695102 	  0.796907037360 	 -0.301580430947 	
12 
Energy: -4.2734155411569900e+03 
C	 -1.554441881410 	 -1.150723177950 	 -0.055563369426 	
C	 -0.670457373384 	  0.020737756625 	  0.296562355295 	
C	  0.670457354422 	 -0.020737680442 	  0.296562646614 	
C	  1.554441850253 	  1.150723162603 	 -0.055563461496 	
H	 -1.158352089203 	 -1.590787314301 	 -0.983553795924 	
H	 -2.569319475585 	 -0.799565179051 	 -0.282277231134 	
H	 -1.630231295797 	 -1.961620111343 	  0.682808028980 	
H	 -1.163371417498 	  0.999604871444 	  0.342023585193 	
H	  1.163371448259 	 -0.999604731792 	  0.342024721665 	
H	  1.158351395446 	  1.590787871411 	 -0.983553320719 	
H	  1.630232392004 	  1.961619712084 	  0.682808247723 	
H	  2.569319092495 	  0.799564820713 	 -0.282278406771 	
12 
Energy: -4.2729427654231004e+03 
C	 -1.504731390802 	 -1.136178415946 	 -0.099417596390 	
C	 -0.673689159945 	 -0.004547250249 	  0.467175203125 	
C	  0.673689123327 	  0.004547339061 	  0.467175326619 	
C	  1.504731374835 	  1.136178399502 	 -0.099417680523 	
H	 -1.028598443820 	 -1.411558011280 	 -1.055034574346 	
H	 -2.497225852791 	 -0.745533529673 	 -0.362011765891 	
H	 -1.637305594615 	 -2.062337341248 	  0.475741976368 	
H	 -1.208379556684 	  0.946815195233 	  0.573546666417 	
H	  1.208379530674 	 -0.946815057474 	  0.573547171260 	
H	  1.028598115859 	  1.411558372187 	 -1.055034385363 	
H	  1.637306286255 	  2.062337135990 	  0.475742035525 	
H	  2.497225567708 	  0.745533163896 	 -0.362012376800 	
12 
Energy: -4.2722451110681604e+03 
C	 -1.467999349840 	 -1.113042480423 	 -0.157529827759 	
C	 -0.680404222685 	 -0.038543632888 	  0.570692382758 	
C	  0.680404162511 	  0.038543738041 	  0.570692439032 	
C	  1.467999349388 	  1.113042459594 	 -0.157529905265 	
H	 -0.945521173453 	 -1.295757509495 	 -1.114380427056 	
H	 -2.441573437776 	 -0.681742804210 	 -0.443283681264 	
H	 -1.649574563669 	 -2.087527389876 	  0.310389450881 	
H	 -1.273986471366 	  0.842538050628 	  0.834112131898 	
H	  1.273986386998 	 -0.842537898527 	  0.834112395037 	
H	  0.945520991353 	  1.295757791045 	 -1.114380339146 	
H	  1.649575122148 	  2.087527224999 	  0.310389456848 	
H	  2.441573206390 	  0.681742451113 	 -0.443284075965 	
12 
Energy: -4.2709590772556103e+03 
C	 -1.460335317755 	 -1.066521229389 	 -0.237060310504 	
C	 -0.696719628876 	 -0.060865229720 	  0.585357530947 	
C	  0.696719534102 	  0.060865348156 	  0.585357551166 	
C	  1.460335327945 	  1.066521198360 	 -0.237060390261 	
H	 -0.922876666187 	 -1.246265561373 	 -1.186891802024 	
H	 -2.444050156928 	 -0.637371139606 	 -0.514427989611 	
H	 -1.646353898893 	 -2.038130584384 	  0.227743884351 	
H	 -1.317069774499 	  0.658728173548 	  1.125278784744 	
H	  1.317069646611 	 -0.658727993130 	  1.125278930158 	
H	  0.922876544732 	  1.246265812016 	 -1.186891742675 	
H	  1.646354421278 	  2.038130417910 	  0.227743882719 	
H	  2.444049968469 	  0.637370787613 	 -0.514428329010 	
12 
Energy: -4.2708979133017101e+03 
C	 -1.471491030548 	 -0.977904867972 	 -0.324172543299 	
C	 -0.700466191102 	 -0.070611641975 	  0.571216230691 	
C	  0.700466081540 	  0.070611763680 	  0.571216248324 	
C	  1.471491044041 	  0.977904822821 	 -0.324172622273 	
H	 -0.916894503706 	 -1.244197281865 	 -1.230649744818 	
H	 -2.482378878944 	 -0.627534573596 	 -0.553697285052 	
H	 -1.616588248356 	 -1.955681214852 	  0.215989905089 	
H	 -1.301832880264 	  0.459493756667 	  1.321313550620 	
H	  1.301832748068 	 -0.459493560895 	  1.321313657728 	
H	  0.916894395231 	  1.244197514068 	 -1.230649667041 	
H	  1.616588735960 	  1.955681059472 	  0.215989903970 	
H	  2.482378728081 	  0.627534224446 	 -0.553697633938 	
12 
Energy: -4.2721171082596502e+03 
C	 -1.474700596426 	 -0.930140331325 	 -0.369757242695 	
C	 -0.680920129774 	 -0.101130353212 	  0.591184823923 	
C	  0.680920050245 	  0.101130476395 	  0.591184842329 	
C	  1.474700610983 	  0.930140282483 	 -0.369757301444 	
H	 -0.918868214068 	 -1.200520480551 	 -1.275419888718 	
H	 -2.492356384241 	 -0.586582312391 	 -0.595453880278 	
H	 -1.613034533084 	 -1.896229193395 	  0.174602110118 	
H	 -1.250653011517 	  0.213492792654 	  1.474844181456 	
H	  1.250652884011 	 -0.213492587217 	  1.474844260015 	
H	  0.918868106726 	  1.200520684389 	 -1.275419799327 	
H	  1.613034976731 	  1.896229050387 	  0.174602105880 	
H	  2.492356240414 	  0.586581971783 	 -0.595454211258 	
12 
Energy: -4.2728419664440398e+03 
C	 -1.464793188634 	 -0.903123244081 	 -0.390184095209 	
C	 -0.662478525728 	 -0.148966437761 	  0.629190379655 	
C	  0.662478459754 	  0.148966550777 	  0.629190394260 	
C	  1.464793205015 	  0.903123199082 	 -0.390184138046 	
H	 -0.909148521557 	 -1.133320859577 	 -1.307805714395 	
H	 -2.474800694603 	 -0.532840279017 	 -0.619053665756 	
H	 -1.621800507308 	 -1.880104944768 	  0.112485477998 	
H	 -1.196385643737 	 -0.002105823642 	  1.575367705398 	
H	  1.196385526639 	  0.002106022746 	  1.575367761094 	
H	  0.909148429924 	  1.133321036270 	 -1.307805637265 	
H	  1.621800900015 	  1.880104817369 	  0.112485472327 	
H	  2.474800560218 	  0.532839962603 	 -0.619053940060 	
12 
Energy: -4.2733199883424804e+03 
C	 -1.438082581248 	 -0.886937380811 	 -0.398863120735 	
C	 -0.642452762561 	 -0.205666032471 	  0.676663677109 	
C	  0.642452707953 	  0.205666124983 	  0.676663686886 	
C	  1.438082597985 	  0.886937344218 	 -0.398863144680 	
H	 -0.878014177730 	 -1.044916895598 	 -1.329341185576 	
H	 -2.434182708098 	 -0.473889448405 	 -0.622377148961 	
H	 -1.624338682721 	 -1.891143308533 	  0.024542113120 	
H	 -1.145743216166 	 -0.194132558034 	  1.649375718815 	
H	  1.145743115011 	  0.194132726645 	  1.649375752749 	
H	  0.878014125097 	  1.044917023017 	 -1.329341140276 	
H	  1.624338978572 	  1.891143210577 	  0.024542107149 	
H	  2.434182603907 	  0.473889194412 	 -0.622377315600 	
12 
Energy: -4.2736604213760002e+03 
C	 -1.401151712769 	 -0.875374999290 	 -0.401927130116 	
C	 -0.613986248303 	 -0.274247462363 	  0.726316524189 	
C	  0.613986205887 	  0.274247532873 	  0.726316529396 	
C	  1.401151729161 	  0.875374971050 	 -0.401927139457 	
H	 -0.839376002691 	 -0.940233100910 	 -1.342783151992 	
H	 -2.374095363185 	 -0.395784620779 	 -0.597597207208 	
H	 -1.633535857842 	 -1.908377553293 	 -0.092544558802 	
H	 -1.083597034265 	 -0.390181987644 	  1.708535546337 	
H	  1.083596951170 	  0.390182122319 	  1.708535562940 	
H	  0.839375986945 	  0.940233173569 	 -1.342783135443 	
H	  1.633536051726 	  1.908377482715 	 -0.092544564425 	
H	  2.374095294167 	  0.395784441754 	 -0.597597275419 	
12 
Energy: -4.2738271773918004e+03 
C	 -1.298255448300 	 -0.931542967795 	 -0.403578304158 	
C	 -0.551982340983 	 -0.382661966968 	  0.777488597057 	
C	  0.551982314002 	  0.382662014349 	  0.777488593478 	
C	  1.298255459633 	  0.931542948884 	 -0.403578315741 	
H	 -0.759714048662 	 -0.804698844655 	 -1.351693042870 	
H	 -2.288559559160 	 -0.458407224387 	 -0.510545677769 	
H	 -1.483807795998 	 -2.008438417394 	 -0.266447742016 	
H	 -0.965343648116 	 -0.653915247592 	  1.754776202798 	
H	  0.965343595079 	  0.653915340338 	  1.754776197482 	
H	  0.759714023837 	  0.804698901339 	 -1.351693044285 	
H	  1.483807936416 	  2.008438373869 	 -0.266447741949 	
H	  2.288559512252 	  0.458407090012 	 -0.510545722026 	
12 
Energy: -4.2738340833719103e+03 
C	 -1.145392945895 	 -1.102645072694 	 -0.403731401077 	
C	 -0.485464455141 	 -0.464185017205 	  0.783018548989 	
C	  0.485464445058 	  0.464185030222 	  0.783018547590 	
C	  1.145392949846 	  1.102645067500 	 -0.403731404691 	
H	 -0.681508965519 	 -0.820132451140 	 -1.357553709373 	
H	 -2.212815665140 	 -0.831879699361 	 -0.455306712487 	
H	 -1.106836142836 	 -2.200628030445 	 -0.324897114133 	
H	 -0.848665813207 	 -0.805478796176 	  1.758470398396 	
H	  0.848665794057 	  0.805478821488 	  1.758470396044 	
H	  0.681508954622 	  0.820132463773 	 -1.357553711079 	
H	  1.106836184467 	  2.200628026071 	 -0.324897114361 	
H	  2.212815659687 	  0.831879657967 	 -0.455306723818 	
12 
Energy: -4.2738362234067499e+03 
C	 -0.967944100948 	 -1.261904829705 	 -0.403617522168 	
C	 -0.409578540397 	 -0.532354558180 	  0.782440523707 	
C	  0.409578538122 	  0.532354560142 	  0.782440523573 	
C	  0.967944101880 	  1.261904828907 	 -0.403617522511 	
H	 -0.598991712816 	 -0.872435210427 	 -1.361161355855 	
H	 -2.068517523983 	 -1.203623217911 	 -0.418574265996 	
H	 -0.713961594017 	 -2.332991633831 	 -0.357097121371 	
H	 -0.715158031887 	 -0.925900909496 	  1.758009742655 	
H	  0.715158027429 	  0.925900913359 	  1.758009742435 	
H	  0.598991711331 	  0.872435211541 	 -1.361161356051 	
H	  0.713961600654 	  2.332991634344 	 -0.357097121507 	
H	  2.068517524633 	  1.203623211257 	 -0.418574266910 	
12 
Energy: -4.2738377194400700e+03 
C	 -0.761558535140 	 -1.396436547884 	 -0.403590374131 	
C	 -0.321787192648 	 -0.589590137019 	  0.782196573540 	
C	  0.321787192419 	  0.589590137085 	  0.782196573582 	
C	  0.761558535244 	  1.396436547855 	 -0.403590374029 	
H	 -0.497235475226 	 -0.931867149497 	 -1.362218979213 	
H	 -1.853364882747 	 -1.545789902730 	 -0.392426307102 	
H	 -0.310009502500 	 -2.401398299404 	 -0.381776153690 	
H	 -0.560721035163 	 -1.026758939586 	  1.757815240310 	
H	  0.560721034686 	  1.026758939720 	  1.757815240382 	
H	  0.497235475329 	  0.931867149549 	 -1.362218979151 	
H	  0.310009502859 	  2.401398299486 	 -0.381776153623 	
H	  1.853364882888 	  1.545789902424 	 -0.392426306876 	
12 
Energy: -4.2738365547183703e+03 
C	 -0.528306932563 	 -1.500240688887 	 -0.403586924830 	
C	 -0.222834336121 	 -0.633662293123 	  0.782283400922 	
C	  0.222834336146 	  0.633662293086 	  0.782283400945 	
C	  0.528306932556 	  1.500240688905 	 -0.403586924775 	
H	 -0.366373039720 	 -0.990670488953 	 -1.362124836962 	
H	 -1.575478925358 	 -1.842360399525 	 -0.378115638861 	
H	  0.095831914908 	 -2.408499837914 	 -0.396338065889 	
H	 -0.387560096393 	 -1.103873797841 	  1.757882065465 	
H	  0.387560096434 	  1.103873797762 	  1.757882065506 	
H	  0.366373039809 	  0.990670488972 	 -1.362124836924 	
H	 -0.095831915011 	  2.408499837866 	 -0.396338065847 	
H	  1.575478925314 	  1.842360399652 	 -0.378115638750 	
12 
Energy: -4.2738372544862896e+03 
C	 -0.272181578173 	 -1.566986711164 	 -0.403621560475 	
C	 -0.114503778900 	 -0.661856101787 	  0.782301982715 	
C	  0.114503778907 	  0.661856101782 	  0.782301982718 	
C	  0.272181578170 	  1.566986711166 	 -0.403621560467 	
H	 -0.199294867193 	 -1.037273545405 	 -1.362130169515 	
H	 -1.247116966742 	 -2.079824107001 	 -0.376788096880 	
H	  0.495373185536 	 -2.357814643130 	 -0.397647994174 	
H	 -0.198775674857 	 -1.152945090694 	  1.757885838307 	
H	  0.198775674870 	  1.152945090683 	  1.757885838313 	
H	  0.199294867204 	  1.037273545411 	 -1.362130169510 	
H	 -0.495373185553 	  2.357814643119 	 -0.397647994167 	
H	  1.247116966730 	  2.079824107021 	 -0.376788096865 	
12 
Energy: -4.2738378439417302e+03 
C	  0.000000000000 	 -1.589515580000 	 -0.403072960000 	
C	  0.000000000000 	 -0.670514980000 	  0.780961630000 	
C	  0.000000000000 	  0.670514980000 	  0.780961630000 	
C	  0.000000000000 	  1.589515580000 	 -0.403072960000 	
H	  0.000000000000 	 -1.057106220000 	 -1.361675910000 	
H	 -0.881240350000 	 -2.249524790000 	 -0.385886000000 	
H	  0.881240350000 	 -2.249524790000 	 -0.385886000000 	
H	  0.000000000000 	 -1.168411060000 	  1.755559240000 	
H	  0.000000000000 	  1.168411060000 	  1.755559240000 	
H	  0.000000000000 	  1.057106220000 	 -1.361675910000 	
H	 -0.881240350000 	  2.249524790000 	 -0.385886000000 	
H	  0.881240350000 	  2.249524790000 	 -0.385886000000 	
