22 
Energy: 0.0000000000000000e+00 
C	 -2.540997000000 	 -2.700951340000 	 -1.191026560000 	
C	 -1.900412570000 	 -1.324429050000 	 -1.224832280000 	
O	 -2.405448700000 	 -0.376595440000 	 -1.834317880000 	
H	 -1.952021110000 	 -3.448729800000 	 -0.644788750000 	
H	 -3.531872430000 	 -2.615793160000 	 -0.725318920000 	
H	 -2.692962400000 	 -3.041994630000 	 -2.223304110000 	
N	 -0.734422940000 	 -1.204558480000 	 -0.519856280000 	
C	  0.043425540000 	  0.020795190000 	 -0.525873410000 	
C	 -0.409153850000 	  0.996972720000 	  0.577229290000 	
C	  1.515274870000 	 -0.384487840000 	 -0.334364110000 	
O	  1.826028060000 	 -1.461160690000 	  0.184557610000 	
H	 -0.258444360000 	 -2.012023630000 	 -0.116237260000 	
H	 -0.100868510000 	  0.500197680000 	 -1.508961990000 	
H	 -1.470714230000 	  1.234011450000 	  0.433006300000 	
H	 -0.275153160000 	  0.541133060000 	  1.567911470000 	
H	  0.163229920000 	  1.934926990000 	  0.543702090000 	
N	  2.423709250000 	  0.545038190000 	 -0.745376040000 	
C	  3.858238860000 	  0.375462010000 	 -0.577896630000 	
H	  2.077337600000 	  1.384788590000 	 -1.199592040000 	
H	  4.017012770000 	 -0.585492380000 	 -0.075918550000 	
H	  4.371438260000 	  0.359324160000 	 -1.550173440000 	
H	  4.282776100000 	  1.179566420000 	  0.040431480000 	
22 
Energy: 0.0000000000000000e+00 
C	 -2.465873858182 	 -2.780286255455 	 -1.130707711818 	
C	 -1.794508973636 	 -1.431568973636 	 -1.121215303636 	
O	 -2.189902146364 	 -0.583797575455 	 -1.583209812727 	
H	 -1.993773948182 	 -3.477647860000 	 -0.559031566364 	
H	 -3.418830464545 	 -2.679219949091 	 -0.788999824545 	
H	 -2.553564112727 	 -3.174825363636 	 -2.085784220909 	
N	 -0.729613320909 	 -1.221458237273 	 -0.552001813636 	
C	  0.049240140909 	  0.003982272727 	 -0.536021691818 	
C	 -0.392850529091 	  0.952930801818 	  0.588332380909 	
C	  1.526701395455 	 -0.378701218182 	 -0.379475097273 	
O	  1.863960503636 	 -1.286159880000 	  0.025066953636 	
H	 -0.348537135455 	 -1.956081623636 	 -0.261504820909 	
H	 -0.107584532727 	  0.501508360000 	 -1.503857278182 	
H	 -1.455283783636 	  1.190331001818 	  0.461194863636 	
H	 -0.248423304545 	  0.480179871818 	  1.566548210909 	
H	  0.179430173636 	  1.890542870000 	  0.565389985455 	
N	  2.405483252727 	  0.375928318182 	 -0.687819898182 	
C	  3.839452929091 	  0.198419973636 	 -0.539889953636 	
H	  2.034676689091 	  1.086883212727 	 -1.047196434545 	
H	  4.028461610909 	 -0.649124078182 	  0.002185060909 	
H	  4.323537997273 	  0.086875309091 	 -1.440882111818 	
H	  4.264255933636 	  0.983743586364 	 -0.051756288182 	
22 
Energy: 0.0000000000000000e+00 
C	 -2.390750716364 	 -2.859621170909 	 -1.070388863636 	
C	 -1.688605377273 	 -1.538708897273 	 -1.017598327273 	
O	 -1.974355592727 	 -0.790999710909 	 -1.332101745455 	
H	 -2.035526786364 	 -3.506565920000 	 -0.473274382727 	
H	 -3.305788499091 	 -2.742646738182 	 -0.852680729091 	
H	 -2.414165825455 	 -3.307656097273 	 -1.948264331818 	
N	 -0.724803701818 	 -1.238357994545 	 -0.584147347273 	
C	  0.055054741818 	 -0.012830644545 	 -0.546169973636 	
C	 -0.376547208182 	  0.908888883636 	  0.599435471818 	
C	  1.538127920909 	 -0.372914596364 	 -0.424586084545 	
O	  1.901892947273 	 -1.111159070000 	 -0.134423702727 	
H	 -0.438629910909 	 -1.900139617273 	 -0.406772381818 	
H	 -0.114300555455 	  0.502819040000 	 -1.498752566364 	
H	 -1.439853337273 	  1.146650553636 	  0.489383427273 	
H	 -0.221693449091 	  0.419226683636 	  1.565184951818 	
H	  0.195630427273 	  1.846158750000 	  0.587077880909 	
N	  2.387257255455 	  0.206818446364 	 -0.630263756364 	
C	  3.820666998182 	  0.021377937273 	 -0.501883277273 	
H	  1.992015778182 	  0.788977835455 	 -0.894800829091 	
H	  4.039910451818 	 -0.712755776364 	  0.080288671818 	
H	  4.275637734545 	 -0.185573541818 	 -1.331590783636 	
H	  4.245735767273 	  0.787920752727 	 -0.143944056364 	
22 
Energy: 0.0000000000000000e+00 
C	 -2.315627574545 	 -2.938956086364 	 -1.010070015455 	
C	 -1.582701780909 	 -1.645848820909 	 -0.913981350909 	
O	 -1.758809039091 	 -0.998201846364 	 -1.080993678182 	
H	 -2.077279624545 	 -3.535483980000 	 -0.387517199091 	
H	 -3.192746533636 	 -2.806073527273 	 -0.916361633636 	
H	 -2.274767538182 	 -3.440486830909 	 -1.810744442727 	
N	 -0.719994082727 	 -1.255257751818 	 -0.616292880909 	
C	  0.060869342727 	 -0.029643561818 	 -0.556318255455 	
C	 -0.360243887273 	  0.864846965455 	  0.610538562727 	
C	  1.549554446364 	 -0.367127974545 	 -0.469697071818 	
O	  1.939825390909 	 -0.936158260000 	 -0.293914359091 	
H	 -0.528722686364 	 -1.844197610909 	 -0.552039942727 	
H	 -0.121016578182 	  0.504129720000 	 -1.493647854545 	
H	 -1.424422890909 	  1.102970105455 	  0.517571990909 	
H	 -0.194963593636 	  0.358273495455 	  1.563821692727 	
H	  0.211830680909 	  1.801774630000 	  0.608765776364 	
N	  2.369031258182 	  0.037708574545 	 -0.572707614545 	
C	  3.801881067273 	 -0.155664099091 	 -0.463876600909 	
H	  1.949354867273 	  0.491072458182 	 -0.742405223636 	
H	  4.051359292727 	 -0.776387474545 	  0.158392282727 	
H	  4.227737471818 	 -0.458022392727 	 -1.222299455455 	
H	  4.227215600909 	  0.592097919091 	 -0.236131824545 	
22 
Energy: 0.0000000000000000e+00 
C	 -2.240504432727 	 -3.018291001818 	 -0.949751167273 	
C	 -1.476798184545 	 -1.752988744545 	 -0.810364374545 	
O	 -1.543262485455 	 -1.205403981818 	 -0.829885610909 	
H	 -2.119032462727 	 -3.564402040000 	 -0.301760015455 	
H	 -3.079704568182 	 -2.869500316364 	 -0.980042538182 	
H	 -2.135369250909 	 -3.573317564545 	 -1.673224553636 	
N	 -0.715184463636 	 -1.272157509091 	 -0.648438414545 	
C	  0.066683943636 	 -0.046456479091 	 -0.566466537273 	
C	 -0.343940566364 	  0.820805047273 	  0.621641653636 	
C	  1.560980971818 	 -0.361341352727 	 -0.514808059091 	
O	  1.977757834545 	 -0.761157450000 	 -0.453405015455 	
H	 -0.618815461818 	 -1.788255604545 	 -0.697307503636 	
H	 -0.127732600909 	  0.505440400000 	 -1.488543142727 	
H	 -1.408992444545 	  1.059289657273 	  0.545760554545 	
H	 -0.168233738182 	  0.297320307273 	  1.562458433636 	
H	  0.228030934545 	  1.757390510000 	  0.630453671818 	
N	  2.350805260909 	 -0.131401297273 	 -0.515151472727 	
C	  3.783095136364 	 -0.332706135455 	 -0.425869924545 	
H	  1.906693956364 	  0.193167080909 	 -0.590009618182 	
H	  4.062808133636 	 -0.840019172727 	  0.236495893636 	
H	  4.179837209091 	 -0.730471243636 	 -1.113008127273 	
H	  4.208695434545 	  0.396275085455 	 -0.328319592727 	
22 
Energy: 0.0000000000000000e+00 
C	 -2.165381290909 	 -3.097625917273 	 -0.889432319091 	
C	 -1.370894588182 	 -1.860128668182 	 -0.706747398182 	
O	 -1.327715931818 	 -1.412606117273 	 -0.578777543636 	
H	 -2.160785300909 	 -3.593320100000 	 -0.216002831818 	
H	 -2.966662602727 	 -2.932927105455 	 -1.043723442727 	
H	 -1.995970963636 	 -3.706148298182 	 -1.535704664545 	
N	 -0.710374844545 	 -1.289057266364 	 -0.680583948182 	
C	  0.072498544545 	 -0.063269396364 	 -0.576614819091 	
C	 -0.327637245455 	  0.776763129091 	  0.632744744545 	
C	  1.572407497273 	 -0.355554730909 	 -0.559919046364 	
O	  2.015690278182 	 -0.586156640000 	 -0.612895671818 	
H	 -0.708908237273 	 -1.732313598182 	 -0.842575064545 	
H	 -0.134448623636 	  0.506751080000 	 -1.483438430909 	
H	 -1.393561998182 	  1.015609209091 	  0.573949118182 	
H	 -0.141503882727 	  0.236367119091 	  1.561095174545 	
H	  0.244231188182 	  1.713006390000 	  0.652141567273 	
N	  2.332579263636 	 -0.300511169091 	 -0.457595330909 	
C	  3.764309205455 	 -0.509748171818 	 -0.387863248182 	
H	  1.864033045455 	 -0.104738296364 	 -0.437614012727 	
H	  4.074256974545 	 -0.903650870909 	  0.314599504545 	
H	  4.131936946364 	 -1.002920094545 	 -1.003716799091 	
H	  4.190175268182 	  0.200452251818 	 -0.420507360909 	
22 
Energy: 0.0000000000000000e+00 
C	 -2.090258149091 	 -3.176960832727 	 -0.829113470909 	
C	 -1.264990991818 	 -1.967268591818 	 -0.603130421818 	
O	 -1.112169378182 	 -1.619808252727 	 -0.327669476364 	
H	 -2.202538139091 	 -3.622238160000 	 -0.130245648182 	
H	 -2.853620637273 	 -2.996353894545 	 -1.107404347273 	
H	 -1.856572676364 	 -3.838979031818 	 -1.398184775455 	
N	 -0.705565225455 	 -1.305957023636 	 -0.712729481818 	
C	  0.078313145455 	 -0.080082313636 	 -0.586763100909 	
C	 -0.311333924545 	  0.732721210909 	  0.643847835455 	
C	  1.583834022727 	 -0.349768109091 	 -0.605030033636 	
O	  2.053622721818 	 -0.411155830000 	 -0.772386328182 	
H	 -0.799001012727 	 -1.676371591818 	 -0.987842625455 	
H	 -0.141164646364 	  0.508061760000 	 -1.478333719091 	
H	 -1.378131551818 	  0.971928760909 	  0.602137681818 	
H	 -0.114774027273 	  0.175413930909 	  1.559731915455 	
H	  0.260431441818 	  1.668622270000 	  0.673829462727 	
N	  2.314353266364 	 -0.469621040909 	 -0.400039189091 	
C	  3.745523274545 	 -0.686790208182 	 -0.349856571818 	
H	  1.821372134545 	 -0.402643673636 	 -0.285218407273 	
H	  4.085705815455 	 -0.967282569091 	  0.392703115455 	
H	  4.084036683636 	 -1.275368945455 	 -0.894425470909 	
H	  4.171655101818 	  0.004629418182 	 -0.512695129091 	
22 
Energy: 0.0000000000000000e+00 
C	 -2.015135007273 	 -3.256295748182 	 -0.768794622727 	
C	 -1.159087395455 	 -2.074408515455 	 -0.499513445455 	
O	 -0.896622824545 	 -1.827010388182 	 -0.076561409091 	
H	 -2.244290977273 	 -3.651156220000 	 -0.044488464545 	
H	 -2.740578671818 	 -3.059780683636 	 -1.171085251818 	
H	 -1.717174389091 	 -3.971809765455 	 -1.260664886364 	
N	 -0.700755606364 	 -1.322856780909 	 -0.744875015455 	
C	  0.084127746364 	 -0.096895230909 	 -0.596911382727 	
C	 -0.295030603636 	  0.688679292727 	  0.654950926364 	
C	  1.595260548182 	 -0.343981487273 	 -0.650141020909 	
O	  2.091555165455 	 -0.236155020000 	 -0.931876984545 	
H	 -0.889093788182 	 -1.620429585455 	 -1.133110186364 	
H	 -0.147880669091 	  0.509372440000 	 -1.473229007273 	
H	 -1.362701105455 	  0.928248312727 	  0.630326245455 	
H	 -0.088044171818 	  0.114460742727 	  1.558368656364 	
H	  0.276631695455 	  1.624238150000 	  0.695517358182 	
N	  2.296127269091 	 -0.638730912727 	 -0.342483047273 	
C	  3.726737343636 	 -0.863832244545 	 -0.311849895455 	
H	  1.778711223636 	 -0.700549050909 	 -0.132822801818 	
H	  4.097154656364 	 -1.030914267273 	  0.470806726364 	
H	  4.036136420909 	 -1.547817796364 	 -0.785134142727 	
H	  4.153134935455 	 -0.191193415455 	 -0.604882897273 	
22 
Energy: 0.0000000000000000e+00 
C	 -1.940011865455 	 -3.335630663636 	 -0.708475774545 	
C	 -1.053183799091 	 -2.181548439091 	 -0.395896469091 	
O	 -0.681076270909 	 -2.034212523636 	  0.174546658182 	
H	 -2.286043815455 	 -3.680074280000 	  0.041268719091 	
H	 -2.627536706364 	 -3.123207472727 	 -1.234766156364 	
H	 -1.577776101818 	 -4.104640499091 	 -1.123144997273 	
N	 -0.695945987273 	 -1.339756538182 	 -0.777020549091 	
C	  0.089942347273 	 -0.113708148182 	 -0.607059664545 	
C	 -0.278727282727 	  0.644637374545 	  0.666054017273 	
C	  1.606687073636 	 -0.338194865455 	 -0.695252008182 	
O	  2.129487609091 	 -0.061154210000 	 -1.091367640909 	
H	 -0.979186563636 	 -1.564487579091 	 -1.278377747273 	
H	 -0.154596691818 	  0.510683120000 	 -1.468124295455 	
H	 -1.347270659091 	  0.884567864545 	  0.658514809091 	
H	 -0.061314316364 	  0.053507554545 	  1.557005397273 	
H	  0.292831949091 	  1.579854030000 	  0.717205253636 	
N	  2.277901271818 	 -0.807840784545 	 -0.284926905455 	
C	  3.707951412727 	 -1.040874280909 	 -0.273843219091 	
H	  1.736050312727 	 -0.998454428182 	  0.019572803636 	
H	  4.108603497273 	 -1.094545965455 	  0.548910337273 	
H	  3.988236158182 	 -1.820266647273 	 -0.675842814545 	
H	  4.134614769091 	 -0.387016249091 	 -0.697070665455 	
22 
Energy: 0.0000000000000000e+00 
C	 -1.864888723636 	 -3.414965579091 	 -0.648156926364 	
C	 -0.947280202727 	 -2.288688362727 	 -0.292279492727 	
O	 -0.465529717273 	 -2.241414659091 	  0.425654725455 	
H	 -2.327796653636 	 -3.708992340000 	  0.127025902727 	
H	 -2.514494740909 	 -3.186634261818 	 -1.298447060909 	
H	 -1.438377814545 	 -4.237471232727 	 -0.985625108182 	
N	 -0.691136368182 	 -1.356656295455 	 -0.809166082727 	
C	  0.095756948182 	 -0.130521065455 	 -0.617207946364 	
C	 -0.262423961818 	  0.600595456364 	  0.677157108182 	
C	  1.618113599091 	 -0.332408243636 	 -0.740362995455 	
O	  2.167420052727 	  0.113846600000 	 -1.250858297273 	
H	 -1.069279339091 	 -1.508545572727 	 -1.423645308182 	
H	 -0.161312714545 	  0.511993800000 	 -1.463019583636 	
H	 -1.331840212727 	  0.840887416364 	  0.686703372727 	
H	 -0.034584460909 	 -0.007445633636 	  1.555642138182 	
H	  0.309032202727 	  1.535469910000 	  0.738893149091 	
N	  2.259675274545 	 -0.976950656364 	 -0.227370763636 	
C	  3.689165481818 	 -1.217916317273 	 -0.235836542727 	
H	  1.693389401818 	 -1.296359805455 	  0.171968409091 	
H	  4.120052338182 	 -1.158177663636 	  0.627013948182 	
H	  3.940335895455 	 -2.092715498182 	 -0.566551486364 	
H	  4.116094602727 	 -0.582839082727 	 -0.789258433636 	
22 
Energy: 0.0000000000000000e+00 
C	 -1.789765581818 	 -3.494300494545 	 -0.587838078182 	
C	 -0.841376606364 	 -2.395828286364 	 -0.188662516364 	
O	 -0.249983163636 	 -2.448616794545 	  0.676762792727 	
H	 -2.369549491818 	 -3.737910400000 	  0.212783086364 	
H	 -2.401452775455 	 -3.250061050909 	 -1.362127965455 	
H	 -1.298979527273 	 -4.370301966364 	 -0.848105219091 	
N	 -0.686326749091 	 -1.373556052727 	 -0.841311616364 	
C	  0.101571549091 	 -0.147333982727 	 -0.627356228182 	
C	 -0.246120640909 	  0.556553538182 	  0.688260199091 	
C	  1.629540124545 	 -0.326621621818 	 -0.785473982727 	
O	  2.205352496364 	  0.288847410000 	 -1.410348953636 	
H	 -1.159372114545 	 -1.452603566364 	 -1.568912869091 	
H	 -0.168028737273 	  0.513304480000 	 -1.457914871818 	
H	 -1.316409766364 	  0.797206968182 	  0.714891936364 	
H	 -0.007854605455 	 -0.068398821818 	  1.554278879091 	
H	  0.325232456364 	  1.491085790000 	  0.760581044545 	
N	  2.241449277273 	 -1.146060528182 	 -0.169814621818 	
C	  3.670379550909 	 -1.394958353636 	 -0.197829866364 	
H	  1.650728490909 	 -1.594265182727 	  0.324364014545 	
H	  4.131501179091 	 -1.221809361818 	  0.705117559091 	
H	  3.892435632727 	 -2.365164349091 	 -0.457260158182 	
H	  4.097574436364 	 -0.778661916364 	 -0.881446201818 	
22 
Energy: 0.0000000000000000e+00 
C	 -1.714642440000 	 -3.573635410000 	 -0.527519230000 	
C	 -0.735473010000 	 -2.502968210000 	 -0.085045540000 	
O	 -0.034436610000 	 -2.655818930000 	  0.927870860000 	
H	 -2.411302330000 	 -3.766828460000 	  0.298540270000 	
H	 -2.288410810000 	 -3.313487840000 	 -1.425808870000 	
H	 -1.159581240000 	 -4.503132700000 	 -0.710585330000 	
N	 -0.681517130000 	 -1.390455810000 	 -0.873457150000 	
C	  0.107386150000 	 -0.164146900000 	 -0.637504510000 	
C	 -0.229817320000 	  0.512511620000 	  0.699363290000 	
C	  1.640966650000 	 -0.320835000000 	 -0.830584970000 	
O	  2.243284940000 	  0.463848220000 	 -1.569839610000 	
H	 -1.249464890000 	 -1.396661560000 	 -1.714180430000 	
H	 -0.174744760000 	  0.514615160000 	 -1.452810160000 	
H	 -1.300979320000 	  0.753526520000 	  0.743080500000 	
H	  0.018875250000 	 -0.129352010000 	  1.552915620000 	
H	  0.341432710000 	  1.446701670000 	  0.782268940000 	
N	  2.223223280000 	 -1.315170400000 	 -0.112258480000 	
C	  3.651593620000 	 -1.572000390000 	 -0.159823190000 	
H	  1.608067580000 	 -1.892170560000 	  0.476759620000 	
H	  4.142950020000 	 -1.285441060000 	  0.783221170000 	
H	  3.844535370000 	 -2.637613200000 	 -0.347968830000 	
H	  4.079054270000 	 -0.974484750000 	 -0.973633970000 	
